Version 4
SHEET 1 904 680
WIRE 304 96 112 96
WIRE 112 144 112 96
WIRE 432 144 416 144
WIRE 608 144 480 144
WIRE 752 144 608 144
WIRE 304 160 304 96
WIRE 320 160 304 160
WIRE 352 160 320 160
WIRE 448 176 416 176
WIRE 480 176 480 144
WIRE 480 176 448 176
WIRE 608 176 608 144
WIRE 752 176 752 144
WIRE 112 288 112 224
WIRE 432 288 432 144
WIRE 432 288 112 288
WIRE 608 288 608 256
WIRE 608 288 432 288
WIRE 752 288 752 240
WIRE 752 288 608 288
FLAG 432 288 0
FLAG 320 160 vin
FLAG 448 176 vout
SYMBOL voltage 112 128 R0
WINDOW 123 0 0 Left 0
WINDOW 39 0 0 Left 0
SYMATTR InstName V1
SYMATTR Value 0
SYMBOL res 592 160 R0
SYMATTR InstName RL
SYMATTR Value 5000
SYMBOL AutoGenerated\\7805 384 160 R0
SYMATTR InstName U1
SYMBOL cap 736 176 R0
SYMATTR InstName C1
SYMATTR Value 500µ
TEXT 78 312 Left 2 !.noise V(vout) V1 dec 20 10 10k
